tests/data/power_flow/matpower-case300/average-source-start/sym_output.json
{
  "version": "1.0",
  "type": "sym_output",
  "is_batch": false,
  "attributes": {},
  "data": {
    "node": [
      {"id": 1, "u_pu": 1.0284201462972262, "u_angle": 0.10415017989170036},
      {"id": 2, "u_pu": 1.0353403862726624, "u_angle": 0.13534983835209},
      {"id": 3, "u_pu": 0.9970986742216718, "u_angle": 0.11618798355992693},
      {"id": 4, "u_pu": 1.0308117974952051, "u_angle": 0.08252387998270364},
      {"id": 5, "u_pu": 1.019109100590723, "u_angle": 0.0820549512401443},
      {"id": 6, "u_pu": 1.0311961155223983, "u_angle": 0.12227885263520082},
      {"id": 7, "u_pu": 0.9934077143811035, "u_angle": 0.10830895565595072},
      {"id": 8, "u_pu": 1.0153, "u_angle": 0.0421545054958599},
      {"id": 9, "u_pu": 1.0033857414099192, "u_angle": 0.050105928192664025},
      {"id": 10, "u_pu": 1.0205, "u_angle": 0.023792001569766186},
      {"id": 11, "u_pu": 1.0056572083914601, "u_angle": 0.043305872710259444},
      {"id": 12, "u_pu": 0.9973732023983699, "u_angle": 0.09128537865694304},
      {"id": 13, "u_pu": 0.9976743751347195, "u_angle": -0.009374225593307058},
      {"id": 14, "u_pu": 0.9991699061767421, "u_angle": -0.08370316217596557},
      {"id": 15, "u_pu": 1.0343912574205492, "u_angle": -0.1495222283778936},
      {"id": 16, "u_pu": 1.0315869504543254, "u_angle": -0.04576810202806513},
      {"id": 17, "u_pu": 1.0649061828863804, "u_angle": -0.22837196228095918},
      {"id": 19, "u_pu": 0.9819235588146032, "u_angle": 0.019001475297404376},
      {"id": 20, "u_pu": 1.001, "u_angle": -0.042707068788249675},
      {"id": 21, "u_pu": 0.9751679540960495, "u_angle": 0.02851823937641969},
      {"id": 22, "u_pu": 0.9962701784041869, "u_angle": -0.03420746266518265},
      {"id": 23, "u_pu": 1.0500976506413278, "u_angle": 0.06896585826697552},
      {"id": 24, "u_pu": 1.0056556245238613, "u_angle": 0.10529616335056007},
      {"id": 25, "u_pu": 1.0233535347174199, "u_angle": 0.02535552353956819},
      {"id": 26, "u_pu": 0.998577095130533, "u_angle": -0.03003781496147775},
      {"id": 27, "u_pu": 0.9750352616674538, "u_angle": -0.08521684860909513},
      {"id": 33, "u_pu": 1.0245648048438465, "u_angle": -0.20947221937385418},
      {"id": 34, "u_pu": 1.0414410136929961, "u_angle": -0.1378967291401712},
      {"id": 35, "u_pu": 0.9756875951299562, "u_angle": -0.44823080650330166},
      {"id": 36, "u_pu": 1.0011698582950423, "u_angle": -0.3930274202550464},
      {"id": 37, "u_pu": 1.0201581992080775, "u_angle": -0.195729251455996},
      {"id": 38, "u_pu": 1.020311620506055, "u_angle": -0.21883946068420296},
      {"id": 39, "u_pu": 1.0536106060811326, "u_angle": -0.10075869423940889},
      {"id": 40, "u_pu": 1.0216547245403225, "u_angle": -0.22271927299317884},
      {"id": 41, "u_pu": 1.0292828727910792, "u_angle": -0.18195759887497873},
      {"id": 42, "u_pu": 1.0449441192160926, "u_angle": -0.12926781219645708},
      {"id": 43, "u_pu": 1.0007318021387013, "u_angle": -0.2925758343750245},
      {"id": 44, "u_pu": 1.0087350303920848, "u_angle": -0.30422852662993427},
      {"id": 45, "u_pu": 1.0216461547279545, "u_angle": -0.2563948514788337},
      {"id": 46, "u_pu": 1.0345148281791277, "u_angle": -0.20415128512125405},
      {"id": 47, "u_pu": 0.97787737683464, "u_angle": -0.40427066151768143},
      {"id": 48, "u_pu": 1.0019584518277265, "u_angle": -0.28135962546944077},
      {"id": 49, "u_pu": 1.0474994080442814, "u_angle": -0.05139184610149955},
      {"id": 51, "u_pu": 1.0253877372742504, "u_angle": -0.14197643553095396},
      {"id": 52, "u_pu": 0.9980031353317932, "u_angle": -0.20663825624885412},
      {"id": 53, "u_pu": 0.9960348001794794, "u_angle": -0.30680726498239563},
      {"id": 54, "u_pu": 1.0051349215012788, "u_angle": -0.28313334050193306},
      {"id": 55, "u_pu": 1.015146403701589, "u_angle": -0.21271128434796086},
      {"id": 57, "u_pu": 1.0334901420040135, "u_angle": -0.139031264868988},
      {"id": 58, "u_pu": 0.9918221463585761, "u_angle": -0.10400217163809969},
      {"id": 59, "u_pu": 0.9788601025827838, "u_angle": -0.09167250966820449},
      {"id": 60, "u_pu": 1.0247163259517011, "u_angle": -0.16606458208686312},
      {"id": 61, "u_pu": 0.990653648525326, "u_angle": -0.05992033986797812},
      {"id": 62, "u_pu": 1.0160397319714953, "u_angle": -0.01852764769407649},
      {"id": 63, "u_pu": 0.9583, "u_angle": -0.3069792926852555},
      {"id": 64, "u_pu": 0.9479556804703577, "u_angle": -0.2257672668220794},
      {"id": 69, "u_pu": 0.962697922766434, "u_angle": -0.46201771558594024},
      {"id": 70, "u_pu": 0.9513184570926203, "u_angle": -0.6130252253739492},
      {"id": 71, "u_pu": 0.9793907015817713, "u_angle": -0.5208859381284258},
      {"id": 72, "u_pu": 0.969614244316484, "u_angle": -0.4789400302040443},
      {"id": 73, "u_pu": 0.9776104769802653, "u_angle": -0.44920038713680954},
      {"id": 74, "u_pu": 0.9964882985186783, "u_angle": -0.3829778537645514},
      {"id": 76, "u_pu": 0.9632, "u_angle": -0.46256413183548906},
      {"id": 77, "u_pu": 0.9837872993961497, "u_angle": -0.43477910439126},
      {"id": 78, "u_pu": 0.9900233871784972, "u_angle": -0.4194829516053528},
      {"id": 79, "u_pu": 0.9820123409436348, "u_angle": -0.4365291577040606},
      {"id": 80, "u_pu": 0.9872424218203834, "u_angle": -0.43314157741193227},
      {"id": 81, "u_pu": 1.0341268686831613, "u_angle": -0.3273660688671523},
      {"id": 84, "u_pu": 1.025, "u_angle": -0.29928525931987343},
      {"id": 85, "u_pu": 0.9871121051316784, "u_angle": -0.31005883129757367},
      {"id": 86, "u_pu": 0.9908179402225759, "u_angle": -0.24867347235799803},
      {"id": 87, "u_pu": 0.9919536410056959, "u_angle": -0.1360087851651642},
      {"id": 88, "u_pu": 1.015248007121139, "u_angle": -0.3641944447625403},
      {"id": 89, "u_pu": 1.0317244087370394, "u_angle": -0.19448054435673845},
      {"id": 90, "u_pu": 1.0272307578167725, "u_angle": -0.19608584272920154},
      {"id": 91, "u_pu": 1.052, "u_angle": -0.16470648417858552},
      {"id": 92, "u_pu": 1.052, "u_angle": -0.1089765634000013},
      {"id": 94, "u_pu": 0.9929450052783755, "u_angle": -0.16492166899344732},
      {"id": 97, "u_pu": 1.0182243859678959, "u_angle": -0.23190335767041434},
      {"id": 98, "u_pu": 1.0, "u_angle": -0.2559501216696905},
      {"id": 99, "u_pu": 0.9893584569179243, "u_angle": -0.355615319120056},
      {"id": 100, "u_pu": 1.0059859620166434, "u_angle": -0.253130830825177},
      {"id": 102, "u_pu": 1.0007076458177349, "u_angle": -0.2669057888701382},
      {"id": 103, "u_pu": 1.0287587985945634, "u_angle": -0.21150030696412958},
      {"id": 104, "u_pu": 0.9957367360164632, "u_angle": -0.30371571797686236},
      {"id": 105, "u_pu": 1.0222669283851868, "u_angle": -0.226922663754081},
      {"id": 107, "u_pu": 1.0094611710845567, "u_angle": -0.28068006986716415},
      {"id": 108, "u_pu": 0.99, "u_angle": -0.35540947708921616},
      {"id": 109, "u_pu": 0.9752447276356206, "u_angle": -0.45887534191869933},
      {"id": 110, "u_pu": 0.9732129050523055, "u_angle": -0.43513816877219763},
      {"id": 112, "u_pu": 0.9744729155397395, "u_angle": -0.510926147901599},
      {"id": 113, "u_pu": 0.970155245441643, "u_angle": -0.44413587017044104},
      {"id": 114, "u_pu": 0.9768120331380173, "u_angle": -0.509796681637511},
      {"id": 115, "u_pu": 0.9602820455847005, "u_angle": -0.23646570767760924},
      {"id": 116, "u_pu": 1.024860756748184, "u_angle": -0.22107938981763553},
      {"id": 117, "u_pu": 0.934828969490832, "u_angle": -0.08201623629648865},
      {"id": 118, "u_pu": 0.929853059357222, "u_angle": -0.0715859587910106},
      {"id": 119, "u_pu": 1.0435, "u_angle": 0.09053613417018938},
      {"id": 120, "u_pu": 0.9584373236875189, "u_angle": -0.15270251941636442},
      {"id": 121, "u_pu": 0.9871110983590851, "u_angle": -0.22017042316098961},
      {"id": 122, "u_pu": 0.972796081562123, "u_angle": -0.25033378480113083},
      {"id": 123, "u_pu": 1.000587929350304, "u_angle": -0.30741246769245023},
      {"id": 124, "u_pu": 1.0233, "u_angle": -0.23499915744382244},
      {"id": 125, "u_pu": 1.0103, "u_angle": -0.3212541528036649},
      {"id": 126, "u_pu": 0.9977954532972669, "u_angle": -0.22414704819428669},
      {"id": 127, "u_pu": 1.0001289065270846, "u_angle": -0.1832910507934813},
      {"id": 128, "u_pu": 1.0024061057455083, "u_angle": -0.08300601081203911},
      {"id": 129, "u_pu": 1.002824726988626, "u_angle": -0.07639546158419422},
      {"id": 130, "u_pu": 1.0191358343492025, "u_angle": 0.09735141976282304},
      {"id": 131, "u_pu": 0.9861423471506741, "u_angle": 0.10600520877427187},
      {"id": 132, "u_pu": 1.004551153024026, "u_angle": 0.0534736831965641},
      {"id": 133, "u_pu": 1.001998333783459, "u_angle": -0.09492831302426306},
      {"id": 134, "u_pu": 1.022075694915601, "u_angle": -0.1400144312093696},
      {"id": 135, "u_pu": 1.0193372479100085, "u_angle": -0.11752958386181243},
      {"id": 136, "u_pu": 1.0475861727571278, "u_angle": 0.027279672337560634},
      {"id": 137, "u_pu": 1.0470881220562287, "u_angle": -0.024984517244558656},
      {"id": 138, "u_pu": 1.055, "u_angle": -0.11049276885765949},
      {"id": 139, "u_pu": 1.01170851712389, "u_angle": -0.06186727168606515},
      {"id": 140, "u_pu": 1.0429914368428042, "u_angle": -0.059551980785326135},
      {"id": 141, "u_pu": 1.051, "u_angle": 0.0012853900770396483},
      {"id": 142, "u_pu": 1.0155096316362358, "u_angle": -0.04785435812828285},
      {"id": 143, "u_pu": 1.0435, "u_angle": 0.07089241325873713},
      {"id": 144, "u_pu": 1.0161066224243638, "u_angle": -0.011534855322320318},
      {"id": 145, "u_pu": 1.008106026368969, "u_angle": -0.002267909476234157},
      {"id": 146, "u_pu": 1.0528, "u_angle": 0.07586863128441493},
      {"id": 147, "u_pu": 1.0528, "u_angle": 0.14641578729366794},
      {"id": 148, "u_pu": 1.0577185837923078, "u_angle": 0.00534504630619651},
      {"id": 149, "u_pu": 1.0735, "u_angle": 0.0917594697428374},
      {"id": 150, "u_pu": 0.9869264612612579, "u_angle": 0.11091924309791179},
      {"id": 151, "u_pu": 1.0048326512980257, "u_angle": 0.07243746571991083},
      {"id": 152, "u_pu": 1.0534999999999999, "u_angle": 0.16168611958866044},
      {"id": 153, "u_pu": 1.0435, "u_angle": 0.1829741782558953},
      {"id": 154, "u_pu": 0.9664168329907679, "u_angle": -0.030992285324643643},
      {"id": 155, "u_pu": 1.0177243163163314, "u_angle": 0.11823484812134705},
      {"id": 156, "u_pu": 0.963, "u_angle": 0.09021251182962844},
      {"id": 157, "u_pu": 0.9844725290449309, "u_angle": -0.20778186715058236},
      {"id": 158, "u_pu": 0.998708597428224, "u_angle": -0.19863078337768117},
      {"id": 159, "u_pu": 0.9866441379630674, "u_angle": -0.1710128453103412},
      {"id": 160, "u_pu": 0.9998010021346962, "u_angle": -0.2186928042544672},
      {"id": 161, "u_pu": 1.0360820589640012, "u_angle": 0.15475911979334714},
      {"id": 162, "u_pu": 0.991820233593462, "u_angle": 0.32330306931709657},
      {"id": 163, "u_pu": 1.0410105523219306, "u_angle": 0.05112510189695325},
      {"id": 164, "u_pu": 0.9839139207943728, "u_angle": 0.16902575618974075},
      {"id": 165, "u_pu": 1.000211496481384, "u_angle": 0.4595796205499657},
      {"id": 166, "u_pu": 0.9972544265624469, "u_angle": 0.5278527107934933},
      {"id": 167, "u_pu": 0.9714921823325483, "u_angle": -0.12017043042558155},
      {"id": 168, "u_pu": 1.0024311010843552, "u_angle": -0.08340793348156457},
      {"id": 169, "u_pu": 0.9878644748572287, "u_angle": -0.11617816462401542},
      {"id": 170, "u_pu": 0.9289999999999999, "u_angle": 0.0018796623887450336},
      {"id": 171, "u_pu": 0.9829, "u_angle": -0.17303020167521604},
      {"id": 172, "u_pu": 1.0244661145932306, "u_angle": -0.10820311586709487},
      {"id": 173, "u_pu": 0.9836542553949659, "u_angle": -0.22215917979767036},
      {"id": 174, "u_pu": 1.0622136166262357, "u_angle": -0.04654225355632439},
      {"id": 175, "u_pu": 0.9730808942416156, "u_angle": -0.12532012273455795},
      {"id": 176, "u_pu": 1.0522, "u_angle": 0.08187768833715706},
      {"id": 177, "u_pu": 1.0076999999999998, "u_angle": 0.011269086173018026},
      {"id": 178, "u_pu": 0.9397955901141868, "u_angle": -0.11408927231545488},
      {"id": 179, "u_pu": 0.9699102766404256, "u_angle": -0.16297188943359747},
      {"id": 180, "u_pu": 0.9793301860747101, "u_angle": -0.05349552507968063},
      {"id": 181, "u_pu": 1.0518236095381153, "u_angle": -0.02274571309049185},
      {"id": 182, "u_pu": 1.0446276740092746, "u_angle": -0.07269516619983407},
      {"id": 183, "u_pu": 0.9716448727186409, "u_angle": 0.12470483069164291},
      {"id": 184, "u_pu": 1.03858929301454, "u_angle": -0.11910995524291633},
      {"id": 185, "u_pu": 1.0522, "u_angle": -0.07522568400825114},
      {"id": 186, "u_pu": 1.065, "u_angle": 0.03829832319650973},
      {"id": 187, "u_pu": 1.0650000000000002, "u_angle": 0.024766005237230947},
      {"id": 188, "u_pu": 1.0532817987735545, "u_angle": -0.012237984399001879},
      {"id": 189, "u_pu": 1.0027574418514351, "u_angle": -0.45401848516704835},
      {"id": 190, "u_pu": 1.0551, "u_angle": -0.35633750616023047},
      {"id": 191, "u_pu": 1.0435, "u_angle": 0.2173224703051158},
      {"id": 192, "u_pu": 0.9374582271115742, "u_angle": -0.19159467742576658},
      {"id": 193, "u_pu": 0.9982357179014986, "u_angle": -0.47944787104682224},
      {"id": 194, "u_pu": 1.0489841488396703, "u_angle": -0.33239524021120614},
      {"id": 195, "u_pu": 1.0359030687367285, "u_angle": -0.35920341961924473},
      {"id": 196, "u_pu": 0.973993321744826, "u_angle": -0.422869393886705},
      {"id": 197, "u_pu": 0.9924733216478402, "u_angle": -0.40250284977882766},
      {"id": 198, "u_pu": 1.015, "u_angle": -0.35071229231255885},
      {"id": 199, "u_pu": 0.954313094373519, "u_angle": -0.4441203732824543},
      {"id": 200, "u_pu": 0.9561735219895786, "u_angle": -0.44273874099567423},
      {"id": 201, "u_pu": 0.9740317256792992, "u_angle": -0.5102141866868011},
      {"id": 202, "u_pu": 0.9908386425253117, "u_angle": -0.4357983728288546},
      {"id": 203, "u_pu": 1.0033592369763698, "u_angle": -0.3826727533066453},
      {"id": 204, "u_pu": 0.9667094601796004, "u_angle": -0.515721592793156},
      {"id": 205, "u_pu": 0.9855536877513633, "u_angle": -0.4976941351828378},
      {"id": 206, "u_pu": 1.0037681356305586, "u_angle": -0.49695148100691444},
      {"id": 207, "u_pu": 1.0185553738259494, "u_angle": -0.4938422835308502},
      {"id": 208, "u_pu": 0.9994400997620091, "u_angle": -0.47120427347406635},
      {"id": 209, "u_pu": 1.0047743335121626, "u_angle": -0.44705123284031234},
      {"id": 210, "u_pu": 0.9804624084065098, "u_angle": -0.4119473221128811},
      {"id": 211, "u_pu": 1.0018204789981981, "u_angle": -0.40092819385014905},
      {"id": 212, "u_pu": 1.0132619134736638, "u_angle": -0.38751617721311177},
      {"id": 213, "u_pu": 1.01, "u_angle": -0.1986050107868197},
      {"id": 214, "u_pu": 0.991862746034326, "u_angle": -0.3008592138940537},
      {"id": 215, "u_pu": 0.9866317428668555, "u_angle": -0.34821036531825195},
      {"id": 216, "u_pu": 0.975109765470344, "u_angle": -0.3887089186985718},
      {"id": 217, "u_pu": 1.0215246658741506, "u_angle": -0.38374141218977925},
      {"id": 218, "u_pu": 1.0075466647351767, "u_angle": -0.3913335143539414},
      {"id": 219, "u_pu": 1.0554202010128082, "u_angle": -0.3656007614521394},
      {"id": 220, "u_pu": 1.008, "u_angle": -0.3755912727949616},
      {"id": 221, "u_pu": 1.0, "u_angle": -0.3889490935045135},
      {"id": 222, "u_pu": 1.05, "u_angle": -0.40079530018759735},
      {"id": 223, "u_pu": 0.9965511002654917, "u_angle": -0.3926211229211429},
      {"id": 224, "u_pu": 1.0002539035065305, "u_angle": -0.37262337765474296},
      {"id": 225, "u_pu": 0.9452757716802113, "u_angle": -0.1944567507987121},
      {"id": 226, "u_pu": 1.018005372442878, "u_angle": -0.37359620051287523},
      {"id": 227, "u_pu": 1.0, "u_angle": -0.4715206651145644},
      {"id": 228, "u_pu": 1.0423564992989471, "u_angle": -0.3619277855375803},
      {"id": 229, "u_pu": 1.0495518925158867, "u_angle": -0.3445516125908617},
      {"id": 230, "u_pu": 1.04, "u_angle": -0.2377123237044213},
      {"id": 231, "u_pu": 1.053540755443513, "u_angle": -0.3668731351642154},
      {"id": 232, "u_pu": 1.0414664660848418, "u_angle": -0.4013254022110069},
      {"id": 233, "u_pu": 1.0, "u_angle": -0.4484774491936543},
      {"id": 234, "u_pu": 1.0387057911652915, "u_angle": -0.36111902383758065},
      {"id": 235, "u_pu": 1.0095146581606094, "u_angle": -0.36343207623175333},
      {"id": 236, "u_pu": 1.0165, "u_angle": -0.265206261673345},
      {"id": 237, "u_pu": 1.0558500307831509, "u_angle": -0.3647307095757471},
      {"id": 238, "u_pu": 1.01, "u_angle": -0.3618999907898393},
      {"id": 239, "u_pu": 1.0, "u_angle": -0.273257975716863},
      {"id": 240, "u_pu": 1.0237762659009737, "u_angle": -0.34791206448707584},
      {"id": 241, "u_pu": 1.05, "u_angle": -0.2845528020821779},
      {"id": 242, "u_pu": 0.993, "u_angle": -0.30065590821956406},
      {"id": 243, "u_pu": 1.01, "u_angle": -0.33072674799733776},
      {"id": 244, "u_pu": 0.9921778783800874, "u_angle": -0.34710857790417593},
      {"id": 245, "u_pu": 0.971139518829903, "u_angle": -0.3591408232060533},
      {"id": 246, "u_pu": 0.9651906067946711, "u_angle": -0.37378192703489443},
      {"id": 247, "u_pu": 0.9690953169890864, "u_angle": -0.3722859690064971},
      {"id": 248, "u_pu": 0.9769994316135441, "u_angle": -0.43301236242207053},
      {"id": 249, "u_pu": 0.9762268313371699, "u_angle": -0.44040497644960297},
      {"id": 250, "u_pu": 1.0205323750304693, "u_angle": -0.4080396598380162},
      {"id": 281, "u_pu": 1.0251253566733267, "u_angle": -0.34664128513817827},
      {"id": 319, "u_pu": 1.015209078144861, "u_angle": 0.02596589040429922},
      {"id": 320, "u_pu": 1.014589591066636, "u_angle": -0.03877096903154462},
      {"id": 322, "u_pu": 1.0004328483096394, "u_angle": -0.3087573458286201},
      {"id": 323, "u_pu": 0.9808896573187731, "u_angle": -0.23995168694674326},
      {"id": 324, "u_pu": 0.9749449218149181, "u_angle": -0.4105333775837795},
      {"id": 526, "u_pu": 0.9428728914565829, "u_angle": -0.5982467324743961},
      {"id": 528, "u_pu": 0.9723865479935928, "u_angle": -0.6552410831774408},
      {"id": 531, "u_pu": 0.9604700753091339, "u_angle": -0.5072702576787119},
      {"id": 552, "u_pu": 1.0009206839974456, "u_angle": -0.40719150697169054},
      {"id": 562, "u_pu": 0.9777280073420445, "u_angle": -0.48771780027777567},
      {"id": 609, "u_pu": 0.9583254658060467, "u_angle": -0.5019496444526627},
      {"id": 664, "u_pu": 1.03102834178073, "u_angle": -0.29378756796478184},
      {"id": 1190, "u_pu": 1.0128755967177125, "u_angle": 0.06850123648465632},
      {"id": 1200, "u_pu": 1.0244380783166225, "u_angle": -0.13095309453792908},
      {"id": 1201, "u_pu": 1.012196539614313, "u_angle": -0.26452896991328795},
      {"id": 2040, "u_pu": 0.9694848735002682, "u_angle": -0.4311129675556894},
      {"id": 7001, "u_pu": 1.0507, "u_angle": 0.18865604250079734},
      {"id": 7002, "u_pu": 1.0507, "u_angle": 0.21819979366112258},
      {"id": 7003, "u_pu": 1.0323000000000002, "u_angle": 0.24041024622635374},
      {"id": 7011, "u_pu": 1.0145, "u_angle": 0.08742572251403173},
      {"id": 7012, "u_pu": 1.0507, "u_angle": 0.20226749674038125},
      {"id": 7017, "u_pu": 1.0507, "u_angle": -0.18240315544527191},
      {"id": 7023, "u_pu": 1.0507, "u_angle": 0.10754022938083355},
      {"id": 7024, "u_pu": 1.029, "u_angle": 0.22005090386311776},
      {"id": 7039, "u_pu": 1.05, "u_angle": 0.037458215829082535},
      {"id": 7044, "u_pu": 1.0145, "u_angle": -0.24226742023504727},
      {"id": 7049, "u_pu": 1.0507, "u_angle": 0.0},
      {"id": 7055, "u_pu": 0.9967, "u_angle": -0.13047356410797867},
      {"id": 7057, "u_pu": 1.0212, "u_angle": -0.05953291000920178},
      {"id": 7061, "u_pu": 1.0144999999999997, "u_angle": 0.03494655181952659},
      {"id": 7062, "u_pu": 1.0017, "u_angle": 0.10176219517041937},
      {"id": 7071, "u_pu": 0.9893, "u_angle": -0.4418347048275077},
      {"id": 7130, "u_pu": 1.0507, "u_angle": 0.3323767029030988},
      {"id": 7139, "u_pu": 1.0507, "u_angle": 0.04832716139230684},
      {"id": 7166, "u_pu": 1.0145, "u_angle": 0.6121283465514159},
      {"id": 9001, "u_pu": 1.0117741112591985, "u_angle": -0.19608193991883174},
      {"id": 9002, "u_pu": 0.9945, "u_angle": -0.3288852046845296},
      {"id": 9003, "u_pu": 0.9833353627223598, "u_angle": -0.34336040652350824},
      {"id": 9004, "u_pu": 0.9768254583555761, "u_angle": -0.3457545349011315},
      {"id": 9005, "u_pu": 1.0117108943943824, "u_angle": -0.19736319311712172},
      {"id": 9006, "u_pu": 1.002923948193923, "u_angle": -0.3039000506171873},
      {"id": 9007, "u_pu": 0.9913865824176803, "u_angle": -0.3259091822800575},
      {"id": 9012, "u_pu": 1.002280143788543, "u_angle": -0.30112028276862346},
      {"id": 9021, "u_pu": 0.9887215428661413, "u_angle": -0.33273627379628246},
      {"id": 9022, "u_pu": 0.9648844383462489, "u_angle": -0.3776338954319334},
      {"id": 9023, "u_pu": 0.9747035556833201, "u_angle": -0.3381322307307224},
      {"id": 9024, "u_pu": 0.9705039419297184, "u_angle": -0.3736703598680304},
      {"id": 9025, "u_pu": 0.9647561954837881, "u_angle": -0.3566531462116229},
      {"id": 9026, "u_pu": 0.9656060874387389, "u_angle": -0.35509524515565044},
      {"id": 9031, "u_pu": 0.9317417305071809, "u_angle": -0.4366133812320214},
      {"id": 9032, "u_pu": 0.9440744729717098, "u_angle": -0.4158632486930425},
      {"id": 9033, "u_pu": 0.9287992618043263, "u_angle": -0.442115847070336},
      {"id": 9034, "u_pu": 0.9972401212917223, "u_angle": -0.3680337976305509},
      {"id": 9035, "u_pu": 0.9504222894413323, "u_angle": -0.40443093280130177},
      {"id": 9036, "u_pu": 0.9596991373249596, "u_angle": -0.3954619159052632},
      {"id": 9037, "u_pu": 0.9570270041788078, "u_angle": -0.39408560396449754},
      {"id": 9038, "u_pu": 0.939159716762947, "u_angle": -0.4260528968782579},
      {"id": 9041, "u_pu": 0.9635546024571449, "u_angle": -0.3719619385903255},
      {"id": 9042, "u_pu": 0.9502668087107511, "u_angle": -0.39228704557270455},
      {"id": 9043, "u_pu": 0.964683364699113, "u_angle": -0.3737479995452132},
      {"id": 9044, "u_pu": 0.9790074178446323, "u_angle": -0.3450546751126154},
      {"id": 9051, "u_pu": 1.0, "u_angle": -0.33826951021683693},
      {"id": 9052, "u_pu": 0.9786265330978613, "u_angle": -0.3007715773586288},
      {"id": 9053, "u_pu": 1.0, "u_angle": -0.3083724853646432},
      {"id": 9054, "u_pu": 1.0, "u_angle": -0.11889468579168239},
      {"id": 9055, "u_pu": 1.0, "u_angle": -0.1313042063067182},
      {"id": 9071, "u_pu": 0.9754311904640269, "u_angle": -0.35707001482431383},
      {"id": 9072, "u_pu": 0.9804602431890899, "u_angle": -0.3474047205365472},
      {"id": 9121, "u_pu": 0.9798876888287216, "u_angle": -0.3364487837393943},
      {"id": 9533, "u_pu": 1.0405173366020735, "u_angle": -0.31734023514026}
    ]
  }
}
